Circuit: * C:\Users\Christian\Desktop\Elektronik\yolo_fc\yolo-fc\simulations\Draft1.asc

WARNING: Node N003 is floating.


Date: Wed Apr 28 19:24:18 2021
Total elapsed time: 0.065 seconds.

tnom = 27
temp = 27
method = trap
totiter = 0
traniter = 0
tranpoints = 0
accept = 0
rejected = 0
matrix size = 6
fillins = 1
solver = Normal

