Circuit: * C:\Users\Christian\Desktop\Elektronik\yolo_fc\yolo-fc\simulations\video_amp.asc

Direct Newton iteration failed to find .op point.  (Use ".option noopiter" to skip.)
Starting Gmin stepping
Gmin = 10
Gmin = 1.07374
vernier = 0.5
vernier = 0.25
vernier = 0.125
vernier = 0.0625
vernier = 0.03125
Gmin = 1.0412
vernier = 0.015625
vernier = 0.0078125
Gmin = 1.0132
vernier = 0.00390625
vernier = 0.00195313
Gmin = 1.00827
vernier = 0.00260417
vernier = 0.00130208
Gmin = 1.00515
vernier = 0.000651042
vernier = 0.000868055
vernier = 0.000434028
Gmin = 1.00434
vernier = 0.000578703
vernier = 0.000434027
Gmin = 1.00339
Gmin = 0
Gmin stepping failed

Starting source stepping with srcstepmethod=0
Source Step = 3.0303%
Source Step = 33.3333%
Source Step = 63.6364%
Source Step = 93.9394%
Source stepping succeeded in finding the operating point.


Date: Thu Apr 22 16:05:34 2021
Total elapsed time: 0.217 seconds.

tnom = 27
temp = 27
method = trap
totiter = 4838
traniter = 0
tranpoints = 0
accept = 0
rejected = 0
matrix size = 22
fillins = 25
solver = Normal
Matrix Compiler1:     131 opcodes
Matrix Compiler2: 2.58 KB object code size  0.2/0.3/[0.2]


