Circuit: * C:\Users\Christian\Desktop\Elektronik\yolo_fc\yolo-fc\simulations\video_amp_high_impedance.asc

u1:d3: both pins shorted together -- ignoring.
Direct Newton iteration failed to find .op point.  (Use ".option noopiter" to skip.)
Starting Gmin stepping
Gmin = 10
Gmin = 1.07374
Gmin = 0.115292
Gmin = 0.0123794
Gmin = 0.00132923
Gmin = 0.000142725
Gmin = 1.5325e-005
Gmin = 1.6455e-006
Gmin = 1.76685e-007
Gmin = 1.89714e-008
Gmin = 2.03704e-009
Gmin = 2.18725e-010
Gmin = 2.34854e-011
Gmin = 2.52173e-012
Gmin = 2.70769e-013
Gmin = 0
Gmin stepping succeeded in finding the operating point.


Date: Wed Apr 28 19:02:12 2021
Total elapsed time: 0.237 seconds.

tnom = 27
temp = 27
method = trap
totiter = 582
traniter = 0
tranpoints = 0
accept = 0
rejected = 0
matrix size = 67
fillins = 142
solver = Normal
Matrix Compiler1:     735 opcodes
Matrix Compiler2: 9.72 KB object code size  0.6/0.8/[0.4]

